<?xml version="1.0" encoding="UTF-8"?>

<!-- generated on 2023-11-24 22:23:20 by Eclipse SUMO jtrrouter Version 1.18.0
<configuration xmlns:xsi="http://www.w3.org/2001/XMLSchema-instance" xsi:noNamespaceSchemaLocation="http://sumo.dlr.de/xsd/jtrrouterConfiguration.xsd">

    <input>
        <net-file value="/home/wmn/TrafficAlpha/TSC-LLM/TSCScenario/3way/./env/3way.net.xml"/>
        <route-files value="/home/wmn/TrafficAlpha/TSC-LLM/TSCScenario/3way/./_testflow.trip.xml"/>
        <turn-ratio-files value="/home/wmn/TrafficAlpha/TSC-LLM/TSCScenario/3way/./_testflow.turndefs.xml"/>
    </input>

    <output>
        <output-file value="/home/wmn/TrafficAlpha/TSC-LLM/TSCScenario/3way/./routes/vehicle.rou.xml"/>
    </output>

    <processing>
        <randomize-flows value="True"/>
        <accept-all-destinations value="True"/>
    </processing>

    <defaults>
        <departlane value="random"/>
    </defaults>

    <report>
        <no-warnings value="true"/>
    </report>

    <random_number>
        <seed value="777"/>
    </random_number>

</configuration>
-->

<routes xmlns:xsi="http://www.w3.org/2001/XMLSchema-instance" xsi:noNamespaceSchemaLocation="http://sumo.dlr.de/xsd/routes_file.xsd">
    <vType id="ego" length="4.50" maxSpeed="17.00" color="26,188,156" tau="1.0"/>
    <vType id="rescue" guiShape="emergency" speedFactor="1.5"/>

    <vehicle id="-E1__0__ego.0" type="ego" depart="0.84" departLane="random">
        <route edges="-E1 -E0"/>
    </vehicle>
    <vType id="background" length="4.50" maxSpeed="15.00" color="155,89,182" tau="1.0"/>
    <vehicle id="E0__0__background.0" type="background" depart="3.58" departLane="random">
        <route edges="E0 E1"/>
    </vehicle>
    <vehicle id="-E1__0__background.0" type="background" depart="4.16" departLane="random">
        <route edges="-E1 -E0"/>
    </vehicle>
    <vehicle id="E2__0__background.0" type="background" depart="5.68" departLane="random">
        <route edges="E2 -E0"/>
    </vehicle>
    <vehicle id="-E1__0__background.1" type="background" depart="5.99" departLane="random">
        <route edges="-E1 -E0"/>
    </vehicle>
    <vehicle id="E0__0__background.1" type="background" depart="6.54" departLane="random">
        <route edges="E0 E1"/>
    </vehicle>
    <vehicle id="E0__0__background.2" type="background" depart="6.80" departLane="random">
        <route edges="E0 -E2"/>
    </vehicle>
    <vehicle id="E2__0__background.1" type="background" depart="7.71" departLane="random">
        <route edges="E2 E1"/>
    </vehicle>
    <vehicle id="-E1__0__background.2" type="background" depart="7.95" departLane="random">
        <route edges="-E1 -E0"/>
    </vehicle>
    <vehicle id="E2__0__background.2" type="background" depart="10.82" departLane="random">
        <route edges="E2 E1"/>
    </vehicle>
    <vehicle id="E0__0__background.3" type="background" depart="10.88" departLane="random">
        <route edges="E0 E1"/>
    </vehicle>
    <vehicle id="E0__0__background.4" type="background" depart="11.03" departLane="random">
        <route edges="E0 E1"/>
    </vehicle>
    <vehicle id="E0__0__background.5" type="background" depart="12.32" departLane="random">
        <route edges="E0 E1"/>
    </vehicle>
    <vehicle id="-E1__0__ego.1" type="ego" depart="15.68" departLane="random">
        <route edges="-E1 -E0"/>
    </vehicle>
    <vehicle id="E0__0__ego.0" type="ego" depart="15.93" departLane="random">
        <route edges="E0 E1"/>
    </vehicle>
    <vehicle id="-E1__0__ego.2" type="ego" depart="16.75" departLane="random">
        <route edges="-E1 -E0"/>
    </vehicle>
    <vehicle id="E0__0__background.6" type="background" depart="17.37" departLane="random">
        <route edges="E0 E1"/>
    </vehicle>
    <vehicle id="E2__0__ego.0" type="ego" depart="19.28" departLane="random">
        <route edges="E2 E1"/>
    </vehicle>
    <vehicle id="E2__0__ego.1" type="ego" depart="20.32" departLane="random">
        <route edges="E2 E1"/>
    </vehicle>
    <vehicle id="-E1__0__ego.3" type="ego" depart="23.35" departLane="random">
        <route edges="-E1 -E2"/>
    </vehicle>
    <vehicle id="-E1__0__background.3" type="background" depart="25.22" departLane="random">
        <route edges="-E1 -E0"/>
    </vehicle>
    <vehicle id="E0__0__background.7" type="background" depart="25.90" departLane="random">
        <route edges="E0 E1"/>
    </vehicle>
    <vehicle id="E0__0__background.8" type="background" depart="26.70" departLane="random">
        <route edges="E0 E1"/>
    </vehicle>
    <vehicle id="E2__0__ego.2" type="ego" depart="26.95" departLane="random">
        <route edges="E2 E1"/>
    </vehicle>
    <vehicle id="-E1__0__background.4" type="background" depart="28.29" departLane="random">
        <route edges="-E1 -E2"/>
    </vehicle>
    <vehicle id="E0__0__background.9" type="background" depart="28.79" departLane="random">
        <route edges="E0 -E2"/>
    </vehicle>
    <vehicle id="-E1__0__background.5" type="background" depart="31.08" departLane="random">
        <route edges="-E1 -E0"/>
    </vehicle>
    <vehicle id="-E1__0__background.6" type="background" depart="33.66" departLane="random">
        <route edges="-E1 -E2"/>
    </vehicle>
    <vehicle id="E2__0__background.3" type="background" depart="35.91" departLane="random">
        <route edges="E2 -E0"/>
    </vehicle>
    <vehicle id="E0__0__ego.1" type="ego" depart="36.79" departLane="random">
        <route edges="E0 E1"/>
    </vehicle>
    <vehicle id="-E1__0__rescue.0" type="rescue" depart="39.15" departLane="random">
        <route edges="-E1 -E0"/>
    </vehicle>
    <vehicle id="E0__0__ego.2" type="ego" depart="40.54" departLane="random">
        <route edges="E0 E1"/>
    </vehicle>
    <vehicle id="E0__0__background.10" type="background" depart="40.85" departLane="random">
        <route edges="E0 E1"/>
    </vehicle>
    <vehicle id="E2__0__background.4" type="background" depart="41.30" departLane="random">
        <route edges="E2 -E0"/>
    </vehicle>
    <vehicle id="-E1__0__background.8" type="background" depart="43.19" departLane="random">
        <route edges="-E1 -E0"/>
    </vehicle>
    <vehicle id="E0__0__background.11" type="background" depart="44.46" departLane="random">
        <route edges="E0 E1"/>
    </vehicle>
    <vehicle id="-E1__0__background.9" type="background" depart="46.02" departLane="random">
        <route edges="-E1 -E0"/>
    </vehicle>
    <vehicle id="-E1__0__ego.4" type="ego" depart="46.02" departLane="random">
        <route edges="-E1 -E2"/>
    </vehicle>
    <vehicle id="E0__0__ego.3" type="ego" depart="47.92" departLane="random">
        <route edges="E0 E1"/>
    </vehicle>
    <vehicle id="-E1__0__background.10" type="background" depart="48.14" departLane="random">
        <route edges="-E1 -E0"/>
    </vehicle>
    <vehicle id="E2__0__background.5" type="background" depart="48.23" departLane="random">
        <route edges="E2 E1"/>
    </vehicle>
    <vehicle id="-E1__0__background.11" type="background" depart="51.52" departLane="random">
        <route edges="-E1 -E0"/>
    </vehicle>
    <vehicle id="E0__0__ego.4" type="ego" depart="52.13" departLane="random">
        <route edges="E0 E1"/>
    </vehicle>
    <vehicle id="-E1__0__background.12" type="background" depart="53.45" departLane="random">
        <route edges="-E1 -E0"/>
    </vehicle>
    <vehicle id="E0__0__background.12" type="background" depart="54.94" departLane="random">
        <route edges="E0 E1"/>
    </vehicle>
    <vehicle id="E2__0__background.6" type="background" depart="56.15" departLane="random">
        <route edges="E2 E1"/>
    </vehicle>
    <vehicle id="E0__1__background.0" type="background" depart="60.03" departLane="random">
        <route edges="E0 E1"/>
    </vehicle>
    <vehicle id="E2__1__background.0" type="background" depart="61.54" departLane="random">
        <route edges="E2 -E0"/>
    </vehicle>
    <vehicle id="-E1__1__background.0" type="background" depart="61.72" departLane="random">
        <route edges="-E1 -E0"/>
    </vehicle>
    <vehicle id="E2__1__background.1" type="background" depart="63.43" departLane="random">
        <route edges="E2 E1"/>
    </vehicle>
    <vehicle id="-E1__1__ego.0" type="ego" depart="63.47" departLane="random">
        <route edges="-E1 -E0"/>
    </vehicle>
    <vehicle id="E0__1__background.1" type="background" depart="64.54" departLane="random">
        <route edges="E0 E1"/>
    </vehicle>
    <vehicle id="E0__1__background.2" type="background" depart="69.31" departLane="random">
        <route edges="E0 E1"/>
    </vehicle>
    <vehicle id="-E1__1__ego.1" type="ego" depart="70.17" departLane="random">
        <route edges="-E1 -E0"/>
    </vehicle>
    <vehicle id="E2__1__ego.0" type="ego" depart="71.26" departLane="random">
        <route edges="E2 E1"/>
    </vehicle>
    <vehicle id="-E1__1__ego.2" type="ego" depart="72.29" departLane="random">
        <route edges="-E1 -E2"/>
    </vehicle>
    <vehicle id="E2__1__background.2" type="background" depart="72.41" departLane="random">
        <route edges="E2 E1"/>
    </vehicle>
    <vehicle id="E2__1__background.3" type="background" depart="73.67" departLane="random">
        <route edges="E2 -E0"/>
    </vehicle>
    <vehicle id="-E1__1__background.1" type="background" depart="74.01" departLane="random">
        <route edges="-E1 -E2"/>
    </vehicle>
    <vehicle id="E2__1__ego.1" type="ego" depart="75.08" departLane="random">
        <route edges="E2 E1"/>
    </vehicle>
    <vehicle id="E2__1__background.4" type="background" depart="75.59" departLane="random">
        <route edges="E2 E1"/>
    </vehicle>
    <vehicle id="E2__1__background.5" type="background" depart="76.46" departLane="random">
        <route edges="E2 E1"/>
    </vehicle>
    <vehicle id="E2__1__background.6" type="background" depart="76.73" departLane="random">
        <route edges="E2 E1"/>
    </vehicle>
    <vehicle id="E2__1__background.7" type="background" depart="78.84" departLane="random">
        <route edges="E2 E1"/>
    </vehicle>
    <vehicle id="E2__1__background.8" type="background" depart="80.50" departLane="random">
        <route edges="E2 E1"/>
    </vehicle>
    <vehicle id="-E1__1__background.2" type="background" depart="83.16" departLane="random">
        <route edges="-E1 -E0"/>
    </vehicle>
    <vehicle id="E0__1__ego.0" type="ego" depart="86.23" departLane="random">
        <route edges="E0 E1"/>
    </vehicle>
    <vehicle id="E0__1__ego.1" type="ego" depart="86.40" departLane="random">
        <route edges="E0 E1"/>
    </vehicle>
    <vehicle id="-E1__1__background.3" type="background" depart="87.35" departLane="random">
        <route edges="-E1 -E0"/>
    </vehicle>
    <vehicle id="E2__1__background.9" type="background" depart="89.83" departLane="random">
        <route edges="E2 -E0"/>
    </vehicle>
    <vehicle id="E0__1__ego.2" type="ego" depart="90.89" departLane="random">
        <route edges="E0 -E2"/>
    </vehicle>
    <vehicle id="E2__1__background.10" type="background" depart="97.85" departLane="random">
        <route edges="E2 -E0"/>
    </vehicle>
    <vehicle id="E2__1__background.11" type="background" depart="102.87" departLane="random">
        <route edges="E2 E1"/>
    </vehicle>
    <vehicle id="E2__1__ego.2" type="ego" depart="103.28" departLane="random">
        <route edges="E2 E1"/>
    </vehicle>
    <vehicle id="-E1__1__background.4" type="background" depart="104.98" departLane="random">
        <route edges="-E1 -E0"/>
    </vehicle>
    <vehicle id="E2__1__background.12" type="background" depart="105.90" departLane="random">
        <route edges="E2 -E0"/>
    </vehicle>
    <vehicle id="-E1__1__background.5" type="background" depart="107.92" departLane="random">
        <route edges="-E1 -E2"/>
    </vehicle>
    <vehicle id="E0__1__background.3" type="background" depart="109.14" departLane="random">
        <route edges="E0 -E2"/>
    </vehicle>
    <vehicle id="-E1__1__background.6" type="background" depart="110.49" departLane="random">
        <route edges="-E1 -E0"/>
    </vehicle>
    <vehicle id="E2__1__ego.3" type="ego" depart="111.42" departLane="random">
        <route edges="E2 E1"/>
    </vehicle>
    <vehicle id="E2__1__ego.4" type="ego" depart="113.47" departLane="random">
        <route edges="E2 E1"/>
    </vehicle>
    <vehicle id="E0__1__background.4" type="background" depart="114.52" departLane="random">
        <route edges="E0 E1"/>
    </vehicle>
    <vehicle id="E0__1__background.5" type="background" depart="117.89" departLane="random">
        <route edges="E0 E1"/>
    </vehicle>
    <vehicle id="E0__1__background.6" type="background" depart="119.78" departLane="random">
        <route edges="E0 -E2"/>
    </vehicle>
    <vehicle id="E0__2__background.0" type="background" depart="120.09" departLane="random">
        <route edges="E0 E1"/>
    </vehicle>
    <vehicle id="E0__2__background.1" type="background" depart="120.19" departLane="random">
        <route edges="E0 E1"/>
    </vehicle>
    <vehicle id="-E1__2__background.0" type="background" depart="120.29" departLane="random">
        <route edges="-E1 -E2"/>
    </vehicle>
    <vehicle id="E0__2__background.2" type="background" depart="124.84" departLane="random">
        <route edges="E0 E1"/>
    </vehicle>
    <vehicle id="-E1__2__ego.0" type="ego" depart="128.46" departLane="random">
        <route edges="-E1 -E0"/>
    </vehicle>
    <vehicle id="-E1__2__background.1" type="background" depart="128.53" departLane="random">
        <route edges="-E1 -E0"/>
    </vehicle>
    <vehicle id="-E1__2__background.2" type="background" depart="134.15" departLane="random">
        <route edges="-E1 -E2"/>
    </vehicle>
    <vehicle id="E2__2__background.0" type="background" depart="134.36" departLane="random">
        <route edges="E2 -E0"/>
    </vehicle>
    <vehicle id="E2__2__ego.0" type="ego" depart="136.26" departLane="random">
        <route edges="E2 E1"/>
    </vehicle>
    <vehicle id="-E1__2__background.3" type="background" depart="137.86" departLane="random">
        <route edges="-E1 -E0"/>
    </vehicle>
    <vehicle id="-E1__2__ego.1" type="ego" depart="139.56" departLane="random">
        <route edges="-E1 -E0"/>
    </vehicle>
    <vehicle id="-E1__2__background.4" type="background" depart="144.00" departLane="random">
        <route edges="-E1 -E2"/>
    </vehicle>
    <vehicle id="E2__2__ego.1" type="ego" depart="144.69" departLane="random">
        <route edges="E2 E1"/>
    </vehicle>
    <vehicle id="-E1__2__background.5" type="background" depart="145.38" departLane="random">
        <route edges="-E1 -E0"/>
    </vehicle>
    <vehicle id="E0__2__background.3" type="background" depart="145.80" departLane="random">
        <route edges="E0 E1"/>
    </vehicle>
    <vehicle id="E0__2__ego.0" type="ego" depart="145.86" departLane="random">
        <route edges="E0 E1"/>
    </vehicle>
    <vehicle id="-E1__2__ego.2" type="ego" depart="148.54" departLane="random">
        <route edges="-E1 -E0"/>
    </vehicle>
    <vehicle id="E2__2__background.1" type="background" depart="150.51" departLane="random">
        <route edges="E2 E1"/>
    </vehicle>
    <vehicle id="-E1__2__background.6" type="background" depart="151.76" departLane="random">
        <route edges="-E1 -E0"/>
    </vehicle>
    <vehicle id="E0__2__ego.1" type="ego" depart="151.85" departLane="random">
        <route edges="E0 E1"/>
    </vehicle>
    <vehicle id="E2__2__background.2" type="background" depart="151.94" departLane="random">
        <route edges="E2 -E0"/>
    </vehicle>
    <vehicle id="-E1__2__ego.3" type="ego" depart="152.29" departLane="random">
        <route edges="-E1 -E0"/>
    </vehicle>
    <vehicle id="-E1__2__background.7" type="background" depart="153.35" departLane="random">
        <route edges="-E1 -E0"/>
    </vehicle>
    <vehicle id="-E1__2__background.8" type="background" depart="153.66" departLane="random">
        <route edges="-E1 -E0"/>
    </vehicle>
    <vehicle id="-E1__2__background.9" type="background" depart="154.35" departLane="random">
        <route edges="-E1 -E0"/>
    </vehicle>
    <vehicle id="-E1__2__background.10" type="background" depart="155.15" departLane="random">
        <route edges="-E1 -E2"/>
    </vehicle>
    <vehicle id="E0__2__ego.2" type="ego" depart="155.70" departLane="random">
        <route edges="E0 E1"/>
    </vehicle>
    <vehicle id="E2__2__background.3" type="background" depart="157.85" departLane="random">
        <route edges="E2 -E0"/>
    </vehicle>
    <vehicle id="E0__2__background.4" type="background" depart="159.52" departLane="random">
        <route edges="E0 E1"/>
    </vehicle>
    <vehicle id="E2__2__ego.2" type="ego" depart="159.82" departLane="random">
        <route edges="E2 E1"/>
    </vehicle>
    <vehicle id="E0__2__background.5" type="background" depart="162.11" departLane="random">
        <route edges="E0 E1"/>
    </vehicle>
    <vehicle id="E0__2__background.6" type="background" depart="162.53" departLane="random">
        <route edges="E0 E1"/>
    </vehicle>
    <vehicle id="-E1__2__background.11" type="background" depart="162.62" departLane="random">
        <route edges="-E1 -E0"/>
    </vehicle>
    <vehicle id="E0__2__background.7" type="background" depart="163.32" departLane="random">
        <route edges="E0 E1"/>
    </vehicle>
    <vehicle id="E0__2__background.8" type="background" depart="163.99" departLane="random">
        <route edges="E0 E1"/>
    </vehicle>
    <vehicle id="E0__2__background.9" type="background" depart="164.08" departLane="random">
        <route edges="E0 E1"/>
    </vehicle>
    <vehicle id="-E1__2__background.12" type="background" depart="164.42" departLane="random">
        <route edges="-E1 -E0"/>
    </vehicle>
    <vehicle id="E0__2__background.10" type="background" depart="165.08" departLane="random">
        <route edges="E0 -E2"/>
    </vehicle>
    <vehicle id="E2__2__background.4" type="background" depart="165.09" departLane="random">
        <route edges="E2 E1"/>
    </vehicle>
    <vehicle id="E0__2__background.11" type="background" depart="167.20" departLane="random">
        <route edges="E0 -E2"/>
    </vehicle>
    <vehicle id="-E1__2__ego.4" type="ego" depart="169.49" departLane="random">
        <route edges="-E1 -E0"/>
    </vehicle>
    <vehicle id="E0__2__ego.3" type="ego" depart="170.44" departLane="random">
        <route edges="E0 -E2"/>
    </vehicle>
    <vehicle id="E0__2__ego.4" type="ego" depart="172.24" departLane="random">
        <route edges="E0 E1"/>
    </vehicle>
    <vehicle id="E2__2__background.5" type="background" depart="173.82" departLane="random">
        <route edges="E2 E1"/>
    </vehicle>
    <vehicle id="E2__2__background.6" type="background" depart="177.22" departLane="random">
        <route edges="E2 E1"/>
    </vehicle>
    <vehicle id="E0__2__background.12" type="background" depart="178.72" departLane="random">
        <route edges="E0 E1"/>
    </vehicle>
    <vehicle id="E0__3__background.0" type="background" depart="180.02" departLane="random">
        <route edges="E0 E1"/>
    </vehicle>
    <vehicle id="E2__3__background.0" type="background" depart="181.00" departLane="random">
        <route edges="E2 -E0"/>
    </vehicle>
    <vehicle id="E0__3__background.1" type="background" depart="181.48" departLane="random">
        <route edges="E0 E1"/>
    </vehicle>
    <vehicle id="E0__3__ego.0" type="ego" depart="182.31" departLane="random">
        <route edges="E0 E1"/>
    </vehicle>
    <vehicle id="E2__3__background.1" type="background" depart="185.41" departLane="random">
        <route edges="E2 E1"/>
    </vehicle>
    <vehicle id="-E1__3__background.0" type="background" depart="188.79" departLane="random">
        <route edges="-E1 -E0"/>
    </vehicle>
    <vehicle id="-E1__3__ego.0" type="ego" depart="188.82" departLane="random">
        <route edges="-E1 -E0"/>
    </vehicle>
    <vehicle id="E2__3__background.2" type="background" depart="189.59" departLane="random">
        <route edges="E2 E1"/>
    </vehicle>
    <vehicle id="E0__3__background.2" type="background" depart="189.59" departLane="random">
        <route edges="E0 -E2"/>
    </vehicle>
    <vehicle id="E2__3__background.3" type="background" depart="193.75" departLane="random">
        <route edges="E2 E1"/>
    </vehicle>
    <vehicle id="E2__3__ego.0" type="ego" depart="196.61" departLane="random">
        <route edges="E2 E1"/>
    </vehicle>
    <vehicle id="E2__3__background.4" type="background" depart="197.09" departLane="random">
        <route edges="E2 -E0"/>
    </vehicle>
    <vehicle id="-E1__3__background.1" type="background" depart="198.82" departLane="random">
        <route edges="-E1 -E0"/>
    </vehicle>
    <vehicle id="E0__3__background.3" type="background" depart="199.11" departLane="random">
        <route edges="E0 -E2"/>
    </vehicle>
    <vehicle id="E0__3__background.4" type="background" depart="199.40" departLane="random">
        <route edges="E0 E1"/>
    </vehicle>
    <vehicle id="-E1__3__rescue.0" type="rescue" depart="201.15" departLane="random">
        <route edges="-E1 -E0"/>
    </vehicle>
    <vehicle id="-E1__3__background.3" type="background" depart="201.25" departLane="random">
        <route edges="-E1 -E0"/>
    </vehicle>
    <vehicle id="E0__3__background.5" type="background" depart="203.38" departLane="random">
        <route edges="E0 E1"/>
    </vehicle>
    <vehicle id="E2__3__background.5" type="background" depart="205.18" departLane="random">
        <route edges="E2 -E0"/>
    </vehicle>
    <vehicle id="E0__3__background.6" type="background" depart="205.85" departLane="random">
        <route edges="E0 E1"/>
    </vehicle>
    <vehicle id="E2__3__ego.1" type="ego" depart="210.15" departLane="random">
        <route edges="E2 -E0"/>
    </vehicle>
    <vehicle id="E0__3__ego.1" type="ego" depart="211.41" departLane="random">
        <route edges="E0 E1"/>
    </vehicle>
    <vehicle id="E2__3__background.6" type="background" depart="213.16" departLane="random">
        <route edges="E2 -E0"/>
    </vehicle>
    <vehicle id="E2__3__background.7" type="background" depart="219.77" departLane="random">
        <route edges="E2 E1"/>
    </vehicle>
    <vehicle id="-E1__3__ego.1" type="ego" depart="220.90" departLane="random">
        <route edges="-E1 -E2"/>
    </vehicle>
    <vehicle id="E0__3__ego.2" type="ego" depart="223.50" departLane="random">
        <route edges="E0 E1"/>
    </vehicle>
    <vehicle id="-E1__3__background.4" type="background" depart="224.49" departLane="random">
        <route edges="-E1 -E0"/>
    </vehicle>
    <vehicle id="-E1__3__ego.2" type="ego" depart="225.73" departLane="random">
        <route edges="-E1 -E0"/>
    </vehicle>
    <vehicle id="E2__3__ego.2" type="ego" depart="228.77" departLane="random">
        <route edges="E2 -E0"/>
    </vehicle>
    <vehicle id="-E1__3__background.5" type="background" depart="228.93" departLane="random">
        <route edges="-E1 -E0"/>
    </vehicle>
    <vehicle id="E2__3__background.8" type="background" depart="230.83" departLane="random">
        <route edges="E2 E1"/>
    </vehicle>
    <vehicle id="E2__3__ego.3" type="ego" depart="231.40" departLane="random">
        <route edges="E2 E1"/>
    </vehicle>
    <vehicle id="E2__3__background.9" type="background" depart="231.75" departLane="random">
        <route edges="E2 E1"/>
    </vehicle>
    <vehicle id="E2__3__background.10" type="background" depart="232.84" departLane="random">
        <route edges="E2 E1"/>
    </vehicle>
    <vehicle id="E2__3__ego.4" type="ego" depart="233.90" departLane="random">
        <route edges="E2 -E0"/>
    </vehicle>
    <vehicle id="E2__3__background.11" type="background" depart="233.95" departLane="random">
        <route edges="E2 -E0"/>
    </vehicle>
    <vehicle id="-E1__3__background.6" type="background" depart="234.15" departLane="random">
        <route edges="-E1 -E0"/>
    </vehicle>
    <vehicle id="E2__3__background.12" type="background" depart="237.52" departLane="random">
        <route edges="E2 -E0"/>
    </vehicle>
    <vehicle id="-E1__4__background.0" type="background" depart="240.93" departLane="random">
        <route edges="-E1 -E0"/>
    </vehicle>
    <vehicle id="-E1__4__ego.0" type="ego" depart="241.02" departLane="random">
        <route edges="-E1 -E0"/>
    </vehicle>
    <vehicle id="E0__4__background.0" type="background" depart="241.71" departLane="random">
        <route edges="E0 E1"/>
    </vehicle>
    <vehicle id="E0__4__ego.0" type="ego" depart="243.60" departLane="random">
        <route edges="E0 -E2"/>
    </vehicle>
    <vehicle id="E2__4__background.0" type="background" depart="244.61" departLane="random">
        <route edges="E2 -E0"/>
    </vehicle>
    <vehicle id="E2__4__background.1" type="background" depart="245.98" departLane="random">
        <route edges="E2 -E0"/>
    </vehicle>
    <vehicle id="E2__4__ego.0" type="ego" depart="246.73" departLane="random">
        <route edges="E2 E1"/>
    </vehicle>
    <vehicle id="E0__4__background.1" type="background" depart="247.76" departLane="random">
        <route edges="E0 -E2"/>
    </vehicle>
    <vehicle id="E0__4__background.2" type="background" depart="248.42" departLane="random">
        <route edges="E0 -E2"/>
    </vehicle>
    <vehicle id="E2__4__background.2" type="background" depart="251.59" departLane="random">
        <route edges="E2 E1"/>
    </vehicle>
    <vehicle id="E2__4__ego.1" type="ego" depart="254.92" departLane="random">
        <route edges="E2 -E0"/>
    </vehicle>
    <vehicle id="E2__4__background.3" type="background" depart="255.04" departLane="random">
        <route edges="E2 E1"/>
    </vehicle>
    <vehicle id="-E1__4__background.1" type="background" depart="257.02" departLane="random">
        <route edges="-E1 -E2"/>
    </vehicle>
    <vehicle id="E0__4__background.3" type="background" depart="262.48" departLane="random">
        <route edges="E0 E1"/>
    </vehicle>
    <vehicle id="-E1__4__ego.1" type="ego" depart="262.54" departLane="random">
        <route edges="-E1 -E0"/>
    </vehicle>
    <vehicle id="-E1__4__background.2" type="background" depart="262.94" departLane="random">
        <route edges="-E1 -E0"/>
    </vehicle>
    <vehicle id="E0__4__background.4" type="background" depart="263.69" departLane="random">
        <route edges="E0 E1"/>
    </vehicle>
    <vehicle id="-E1__4__background.3" type="background" depart="263.79" departLane="random">
        <route edges="-E1 -E2"/>
    </vehicle>
    <vehicle id="-E1__4__background.4" type="background" depart="263.95" departLane="random">
        <route edges="-E1 -E0"/>
    </vehicle>
    <vehicle id="E2__4__background.4" type="background" depart="266.05" departLane="random">
        <route edges="E2 E1"/>
    </vehicle>
    <vehicle id="E0__4__background.5" type="background" depart="266.20" departLane="random">
        <route edges="E0 E1"/>
    </vehicle>
    <vehicle id="-E1__4__background.5" type="background" depart="269.77" departLane="random">
        <route edges="-E1 -E0"/>
    </vehicle>
    <vehicle id="E2__4__background.5" type="background" depart="274.15" departLane="random">
        <route edges="E2 -E0"/>
    </vehicle>
    <vehicle id="-E1__4__ego.2" type="ego" depart="274.33" departLane="random">
        <route edges="-E1 -E0"/>
    </vehicle>
    <vehicle id="E0__4__ego.1" type="ego" depart="274.60" departLane="random">
        <route edges="E0 E1"/>
    </vehicle>
    <vehicle id="-E1__4__background.6" type="background" depart="275.51" departLane="random">
        <route edges="-E1 -E0"/>
    </vehicle>
    <vehicle id="E2__4__ego.2" type="ego" depart="276.78" departLane="random">
        <route edges="E2 E1"/>
    </vehicle>
    <vehicle id="-E1__4__background.7" type="background" depart="277.00" departLane="random">
        <route edges="-E1 -E0"/>
    </vehicle>
    <vehicle id="-E1__4__background.8" type="background" depart="277.15" departLane="random">
        <route edges="-E1 -E2"/>
    </vehicle>
    <vehicle id="-E1__4__background.9" type="background" depart="278.52" departLane="random">
        <route edges="-E1 -E2"/>
    </vehicle>
    <vehicle id="E0__4__background.6" type="background" depart="280.14" departLane="random">
        <route edges="E0 E1"/>
    </vehicle>
    <vehicle id="-E1__4__ego.3" type="ego" depart="281.20" departLane="random">
        <route edges="-E1 -E0"/>
    </vehicle>
    <vehicle id="E0__4__background.7" type="background" depart="283.04" departLane="random">
        <route edges="E0 E1"/>
    </vehicle>
    <vehicle id="E0__4__ego.2" type="ego" depart="284.11" departLane="random">
        <route edges="E0 -E2"/>
    </vehicle>
    <vehicle id="-E1__4__background.10" type="background" depart="285.21" departLane="random">
        <route edges="-E1 -E0"/>
    </vehicle>
    <vehicle id="E0__4__ego.3" type="ego" depart="285.63" departLane="random">
        <route edges="E0 E1"/>
    </vehicle>
    <vehicle id="E0__4__background.8" type="background" depart="286.71" departLane="random">
        <route edges="E0 E1"/>
    </vehicle>
    <vehicle id="E0__4__background.9" type="background" depart="289.36" departLane="random">
        <route edges="E0 -E2"/>
    </vehicle>
    <vehicle id="E0__4__ego.4" type="ego" depart="291.29" departLane="random">
        <route edges="E0 E1"/>
    </vehicle>
    <vehicle id="E0__4__background.10" type="background" depart="292.05" departLane="random">
        <route edges="E0 E1"/>
    </vehicle>
    <vehicle id="-E1__4__ego.4" type="ego" depart="292.20" departLane="random">
        <route edges="-E1 -E0"/>
    </vehicle>
    <vehicle id="-E1__4__background.11" type="background" depart="295.61" departLane="random">
        <route edges="-E1 -E2"/>
    </vehicle>