<additional xmlns:xsi="http://www.w3.org/2001/XMLSchema-instance" xsi:noNamespaceSchemaLocation="http://sumo.dlr.de/xsd/additional_file.xsd">
    <laneAreaDetector file="e2.output.xml" freq="60" friendlyPos="x" id="e2det--T1--1125684496#1--1125684496#1_0--rs" lane="1125684496#1_0" pos="154.31" length="100"/>
    <laneAreaDetector file="e2.output.xml" freq="60" friendlyPos="x" id="e2det--T1--1125684496#1--1125684496#1_1--s" lane="1125684496#1_1" pos="154.31" length="100"/>
    <laneAreaDetector file="e2.output.xml" freq="60" friendlyPos="x" id="e2det--T1--1125684496#1--1125684496#1_2--s" lane="1125684496#1_2" pos="154.31" length="100"/>
    <laneAreaDetector file="e2.output.xml" freq="60" friendlyPos="x" id="e2det--T1--1125684496#1--1125684496#1_3--sl" lane="1125684496#1_3" pos="154.31" length="100"/>
    <laneAreaDetector file="e2.output.xml" freq="60" friendlyPos="x" id="e2det--T1--1125678574--1125678574_0--rs" lane="1125678574_0" pos="136.03" length="100"/>
    <laneAreaDetector file="e2.output.xml" freq="60" friendlyPos="x" id="e2det--T1--1125678574--1125678574_1--s" lane="1125678574_1" pos="136.03" length="100"/>
    <laneAreaDetector file="e2.output.xml" freq="60" friendlyPos="x" id="e2det--T1--1125678574--1125678574_2--sl" lane="1125678574_2" pos="136.03" length="100"/>
    <laneAreaDetector file="e2.output.xml" freq="60" friendlyPos="x" id="e2det--T1--1125695391#0.789--1125695391#0.789_0--rs" lane="1125695391#0.789_0" pos="163.98999999999998" length="100"/>
    <laneAreaDetector file="e2.output.xml" freq="60" friendlyPos="x" id="e2det--T1--1125695391#0.789--1125695391#0.789_1--s" lane="1125695391#0.789_1" pos="163.98999999999998" length="100"/>
    <laneAreaDetector file="e2.output.xml" freq="60" friendlyPos="x" id="e2det--T1--1125695391#0.789--1125695391#0.789_2--s" lane="1125695391#0.789_2" pos="163.98999999999998" length="100"/>
    <laneAreaDetector file="e2.output.xml" freq="60" friendlyPos="x" id="e2det--T1--1125695391#0.789--1125695391#0.789_3--sl" lane="1125695391#0.789_3" pos="163.98999999999998" length="100"/>
    <laneAreaDetector file="e2.output.xml" freq="60" friendlyPos="x" id="e2det--T1--1125691753#1--1125691753#1_0--rs" lane="1125691753#1_0" pos="97.24000000000001" length="100"/>
    <laneAreaDetector file="e2.output.xml" freq="60" friendlyPos="x" id="e2det--T1--1125691753#1--1125691753#1_1--s" lane="1125691753#1_1" pos="97.24000000000001" length="100"/>
    <laneAreaDetector file="e2.output.xml" freq="60" friendlyPos="x" id="e2det--T1--1125691753#1--1125691753#1_2--sl" lane="1125691753#1_2" pos="97.24000000000001" length="100"/>
    <laneAreaDetector file="e2.output.xml" freq="60" friendlyPos="x" id="e2det--T2--1125790983#2--1125790983#2_0--rs" lane="1125790983#2_0" pos="27.609999999999992" length="100"/>
    <laneAreaDetector file="e2.output.xml" freq="60" friendlyPos="x" id="e2det--T2--1125790983#2--1125790983#2_1--s" lane="1125790983#2_1" pos="27.609999999999992" length="100"/>
    <laneAreaDetector file="e2.output.xml" freq="60" friendlyPos="x" id="e2det--T2--1125790983#2--1125790983#2_2--s" lane="1125790983#2_2" pos="27.609999999999992" length="100"/>
    <laneAreaDetector file="e2.output.xml" freq="60" friendlyPos="x" id="e2det--T2--1125790983#2--1125790983#2_3--sl" lane="1125790983#2_3" pos="27.609999999999992" length="100"/>
    <laneAreaDetector file="e2.output.xml" freq="60" friendlyPos="x" id="e2det--T2--1125793701#3--1125793701#3_0--rs" lane="1125793701#3_0" pos="42.62999999999999" length="100"/>
    <laneAreaDetector file="e2.output.xml" freq="60" friendlyPos="x" id="e2det--T2--1125793701#3--1125793701#3_1--s" lane="1125793701#3_1" pos="42.62999999999999" length="100"/>
    <laneAreaDetector file="e2.output.xml" freq="60" friendlyPos="x" id="e2det--T2--1125793701#3--1125793701#3_2--sl" lane="1125793701#3_2" pos="42.62999999999999" length="100"/>
    <laneAreaDetector file="e2.output.xml" freq="60" friendlyPos="x" id="e2det--T2--1125695392#0--1125695392#0_0--rs" lane="1125695392#0_0" pos="467.29999999999995" length="100"/>
    <laneAreaDetector file="e2.output.xml" freq="60" friendlyPos="x" id="e2det--T2--1125695392#0--1125695392#0_1--s" lane="1125695392#0_1" pos="467.29999999999995" length="100"/>
    <laneAreaDetector file="e2.output.xml" freq="60" friendlyPos="x" id="e2det--T2--1125695392#0--1125695392#0_2--s" lane="1125695392#0_2" pos="467.29999999999995" length="100"/>
    <laneAreaDetector file="e2.output.xml" freq="60" friendlyPos="x" id="e2det--T2--1125695392#0--1125695392#0_3--l" lane="1125695392#0_3" pos="467.29999999999995" length="100"/>
    <laneAreaDetector file="e2.output.xml" freq="60" friendlyPos="x" id="e2det--T2--219056200#2--219056200#2_0--rs" lane="219056200#2_0" pos="161.01000000000002" length="100"/>
    <laneAreaDetector file="e2.output.xml" freq="60" friendlyPos="x" id="e2det--T2--219056200#2--219056200#2_1--s" lane="219056200#2_1" pos="161.01000000000002" length="100"/>
    <laneAreaDetector file="e2.output.xml" freq="60" friendlyPos="x" id="e2det--T2--219056200#2--219056200#2_2--sLl" lane="219056200#2_2" pos="161.01000000000002" length="100"/>
</additional>
