<additional xmlns:xsi="http://www.w3.org/2001/XMLSchema-instance" xsi:noNamespaceSchemaLocation="http://sumo.dlr.de/xsd/additional_file.xsd">
    <timedEvent type="SaveTLSStates" source="cluster_2462979734_5552125519_5552125520_5552126222_#6more" dest="SaveTLSStates_cluster_2462979734_5552125519_5552125520_5552126222_#6more.out.xml"/>
    <timedEvent type="SaveTLSStates" source="T1" dest="SaveTLSStates_T1.out.xml"/>
    <timedEvent type="SaveTLSStates" source="6742070435" dest="SaveTLSStates_6742070435.out.xml"/>
    <timedEvent type="SaveTLSStates" source="T2" dest="SaveTLSStates_T2.out.xml"/>
    <timedEvent type="SaveTLSProgram" source="cluster_2462979734_5552125519_5552125520_5552126222_#6more" dest="SaveTLSProgram_cluster_2462979734_5552125519_5552125520_5552126222_#6more.out.xml"/>
    <timedEvent type="SaveTLSProgram" source="T1" dest="SaveTLSProgram_T1.out.xml"/>
    <timedEvent type="SaveTLSProgram" source="6742070435" dest="SaveTLSProgram_6742070435.out.xml"/>
    <timedEvent type="SaveTLSProgram" source="T2" dest="SaveTLSProgram_T2.out.xml"/>
    <timedEvent type="SaveTLSSwitchStates" source="cluster_2462979734_5552125519_5552125520_5552126222_#6more" dest="SaveTLSSwitchStates_cluster_2462979734_5552125519_5552125520_5552126222_#6more.out.xml"/>
    <timedEvent type="SaveTLSSwitchStates" source="T1" dest="SaveTLSSwitchStates_T1.out.xml"/>
    <timedEvent type="SaveTLSSwitchStates" source="6742070435" dest="SaveTLSSwitchStates_6742070435.out.xml"/>
    <timedEvent type="SaveTLSSwitchStates" source="T2" dest="SaveTLSSwitchStates_T2.out.xml"/>
    <timedEvent type="SaveTLSSwitchTimes" source="cluster_2462979734_5552125519_5552125520_5552126222_#6more" dest="SaveTLSSwitchTimes_cluster_2462979734_5552125519_5552125520_5552126222_#6more.out.xml"/>
    <timedEvent type="SaveTLSSwitchTimes" source="T1" dest="SaveTLSSwitchTimes_T1.out.xml"/>
    <timedEvent type="SaveTLSSwitchTimes" source="6742070435" dest="SaveTLSSwitchTimes_6742070435.out.xml"/>
    <timedEvent type="SaveTLSSwitchTimes" source="T2" dest="SaveTLSSwitchTimes_T2.out.xml"/>
</additional>
