<additional xmlns:xsi="http://www.w3.org/2001/XMLSchema-instance" xsi:noNamespaceSchemaLocation="http://sumo.dlr.de/xsd/additional_file.xsd">
    <laneAreaDetector file="e2.output.xml" freq="60" friendlyPos="x" id="e2det--J4---E2---E2_0--r" lane="-E2_0" pos="73.02000000000001" length="100"/>
    <laneAreaDetector file="e2.output.xml" freq="60" friendlyPos="x" id="e2det--J4---E2---E2_1--s" lane="-E2_1" pos="73.02000000000001" length="100"/>
    <laneAreaDetector file="e2.output.xml" freq="60" friendlyPos="x" id="e2det--J4---E2---E2_2--s" lane="-E2_2" pos="73.02000000000001" length="100"/>
    <laneAreaDetector file="e2.output.xml" freq="60" friendlyPos="x" id="e2det--J4---E2---E2_3--l" lane="-E2_3" pos="73.02000000000001" length="100"/>
    <laneAreaDetector file="e2.output.xml" freq="60" friendlyPos="x" id="e2det--J4---E4---E4_0--rs" lane="-E4_0" pos="30.73000000000001" length="100"/>
    <laneAreaDetector file="e2.output.xml" freq="60" friendlyPos="x" id="e2det--J4---E4---E4_1--s" lane="-E4_1" pos="30.73000000000001" length="100"/>
    <laneAreaDetector file="e2.output.xml" freq="60" friendlyPos="x" id="e2det--J4---E4---E4_2--l" lane="-E4_2" pos="30.73000000000001" length="100"/>
    <laneAreaDetector file="e2.output.xml" freq="60" friendlyPos="x" id="e2det--J4--E1--E1_0--r" lane="E1_0" pos="89.55000000000001" length="100"/>
    <laneAreaDetector file="e2.output.xml" freq="60" friendlyPos="x" id="e2det--J4--E1--E1_1--s" lane="E1_1" pos="89.55000000000001" length="100"/>
    <laneAreaDetector file="e2.output.xml" freq="60" friendlyPos="x" id="e2det--J4--E1--E1_2--s" lane="E1_2" pos="89.55000000000001" length="100"/>
    <laneAreaDetector file="e2.output.xml" freq="60" friendlyPos="x" id="e2det--J4--E1--E1_3--l" lane="E1_3" pos="89.55000000000001" length="100"/>
    <laneAreaDetector file="e2.output.xml" freq="60" friendlyPos="x" id="e2det--J4--E3--E3_0--rs" lane="E3_0" pos="32.52" length="100"/>
    <laneAreaDetector file="e2.output.xml" freq="60" friendlyPos="x" id="e2det--J4--E3--E3_1--s" lane="E3_1" pos="32.52" length="100"/>
    <laneAreaDetector file="e2.output.xml" freq="60" friendlyPos="x" id="e2det--J4--E3--E3_2--l" lane="E3_2" pos="32.52" length="100"/>
</additional>
