<additional xmlns:xsi="http://www.w3.org/2001/XMLSchema-instance" xsi:noNamespaceSchemaLocation="http://sumo.dlr.de/xsd/additional_file.xsd">
    <laneAreaDetector file="e2.output.xml" freq="60" friendlyPos="x" id="e2det--J4---E2---E2_0--r" lane="-E2_0" pos="93.01000000000002" length="80"/>
    <laneAreaDetector file="e2.output.xml" freq="60" friendlyPos="x" id="e2det--J4---E2---E2_1--s" lane="-E2_1" pos="93.01000000000002" length="80"/>
    <laneAreaDetector file="e2.output.xml" freq="60" friendlyPos="x" id="e2det--J4---E2---E2_2--l" lane="-E2_2" pos="93.01000000000002" length="80"/>
    <laneAreaDetector file="e2.output.xml" freq="60" friendlyPos="x" id="e2det--J4---E4---E4_0--r" lane="-E4_0" pos="53.93999999999999" length="80"/>
    <laneAreaDetector file="e2.output.xml" freq="60" friendlyPos="x" id="e2det--J4---E4---E4_1--s" lane="-E4_1" pos="53.93999999999999" length="80"/>
    <laneAreaDetector file="e2.output.xml" freq="60" friendlyPos="x" id="e2det--J4---E4---E4_2--l" lane="-E4_2" pos="53.93999999999999" length="80"/>
    <laneAreaDetector file="e2.output.xml" freq="60" friendlyPos="x" id="e2det--J4--E1--E1_0--r" lane="E1_0" pos="109.55000000000001" length="80"/>
    <laneAreaDetector file="e2.output.xml" freq="60" friendlyPos="x" id="e2det--J4--E1--E1_1--s" lane="E1_1" pos="109.55000000000001" length="80"/>
    <laneAreaDetector file="e2.output.xml" freq="60" friendlyPos="x" id="e2det--J4--E1--E1_2--l" lane="E1_2" pos="109.55000000000001" length="80"/>
    <laneAreaDetector file="e2.output.xml" freq="60" friendlyPos="x" id="e2det--J4--E3--E3_0--r" lane="E3_0" pos="55.71999999999999" length="80"/>
    <laneAreaDetector file="e2.output.xml" freq="60" friendlyPos="x" id="e2det--J4--E3--E3_1--s" lane="E3_1" pos="55.71999999999999" length="80"/>
    <laneAreaDetector file="e2.output.xml" freq="60" friendlyPos="x" id="e2det--J4--E3--E3_2--l" lane="E3_2" pos="55.71999999999999" length="80"/>
</additional>
